       9
      0 E_pot = -6.4308696624    8.04107571766 -4.64250531101 0.0 0.0 9.28501062203 0.0 0.0 0.0 10.214389273
Si  1.999357437 -1.154329699 -1.801733563
Si  0.000000000  2.308659399  1.801733563
Si -1.999357437 -1.154329699  0.000000000
 O  1.762048976  0.299963042 -1.159593954
 O -1.140800226  1.375997798  2.443872642
 O -0.621248751 -1.675960841  0.642139609
 O  0.621248751 -1.675960841 -2.443872642
 O -1.762048976  0.299963042 -0.642139609
 O  1.140800226  1.375997798  1.159593954
       9
      1 E_pot = -6.4355009739    8.01364141009 -4.62667071277 2.72163667614e-06 -9.88297135432e-07 9.25333971376 -1.43711857205e-06 2.54446207511e-06 -1.580966261e-06 10.1911720751
Si  1.978740893 -1.134458971 -1.797650296
Si  0.006902658  2.280863920  1.797648242
Si -1.985638065 -1.146405872  0.000002054
 O  1.776641927  0.287640620 -1.145323314
 O -1.158037237  1.407292149  2.449969198
 O -0.618612191 -1.694928439  0.652316336
 O  0.639732136 -1.706531883 -2.449964029
 O -1.777159182  0.311734587 -0.652319584
 O  1.137429060  1.394793889  1.145321392
       9
      2 E_pot = -6.4364362850    8.01672771844 -4.6304929711 -0.00181807483917 -0.00117932446591 9.25894328705 0.00181900405802 -0.00115413866151 0.00200107639013 10.1990246776
Si  1.978095678 -1.138297984 -1.801100734
Si  0.003397615  2.282479358  1.801100305
Si -1.982317815 -1.144658298 -0.000000787
 O  1.775440677  0.298902117 -1.140162442
 O -1.160125509  1.411351893  2.450509276
 O -0.625819830 -1.691106322  0.648720320
 O  0.642024777 -1.710520104 -2.450508458
 O -1.777236457  0.303498471 -0.648720409
 O  1.146540864  1.388350868  1.140162928
       9
      3 E_pot = -6.4373473130    8.02854412347 -4.63586376711 -0.00772460281616 -0.000454186272929 9.27094085851 0.00770811281068 -0.0049166640295 0.00847965263735 10.2268940921
Si  1.972140078 -1.137085004 -1.794532733
Si  0.001247169  2.276606745  1.794710207
Si -1.971615355 -1.138203950 -0.000178332
 O  1.786176071  0.304294774 -1.144401701
 O -1.169791938  1.425461624  2.457621837
 O -0.633360975 -1.702429151  0.653558281
 O  0.649517442 -1.725836343 -2.457703719
 O -1.790948716  0.302494113 -0.653485757
 O  1.156636224  1.394697192  1.144411917
       9
      4 E_pot = -6.4378205505    8.03929518975 -4.64363405672 -0.00954342299772 -0.00129706781998 9.28502152031 0.0095251213273 -0.00607301692656 0.0104785337433 10.2469314519
Si  1.968886997 -1.134127546 -1.806119633
Si  0.002507437  2.272226434  1.806056048
Si -1.966324401 -1.135667144  0.000137138
 O  1.797286876  0.305758017 -1.143449458
 O -1.180231737  1.434888794  2.471296682
 O -0.634807375 -1.715582891  0.654800600
 O  0.652362300 -1.739601922 -2.471025854
 O -1.803080352  0.308252636 -0.655113177
 O  1.163400256  1.403853621  1.143417654
       9
      5 E_pot = -6.4378881748    8.04471079059 -4.64686339811 -0.0102659203921 -0.00157797938077 9.29099364874 0.010255780492 -0.00652671879382 0.011282327884 10.2546047054
Si  1.967707086 -1.133920784 -1.807819799
Si  0.001641460  2.271710092  1.808017702
Si -1.968137295 -1.135743712 -0.000429129
 O  1.801547298  0.306168857 -1.143628929
 O -1.178957722  1.431709991  2.473043895
 O -0.633255970 -1.721116794  0.657218792
 O  0.650154225 -1.737075513 -2.473430475
 O -1.806636149  0.311053766 -0.656600771
 O  1.165937067  1.407214097  1.143628716
       9
      6 E_pot = -6.4379282773    8.04724845735 -4.64883388558 -0.0107436178964 -0.00174658898289 9.29464258254 0.0106975057228 -0.00685297010972 0.0117682673883 10.2596737722
Si  1.967070782 -1.134317441 -1.809978410
Si  0.001458828  2.270761454  1.810169337
Si -1.968062087 -1.136842960  0.000080340
 O  1.804666677  0.306798753 -1.144463614
 O -1.177333216  1.427613390  2.475379539
 O -0.635474826 -1.720567862  0.656496484
 O  0.647458718 -1.733515100 -2.475249118
 O -1.807796006  0.310343018 -0.656924029
 O  1.168011129  1.409726748  1.144489470
       9
      7 E_pot = -6.4379624286    8.04731013727 -4.64866132883 -0.0113624685326 -0.001758744832 9.29427641443 0.0113572982347 -0.00722002205964 0.0124941015128 10.2608188425
Si  1.967678560 -1.136361907 -1.810794273
Si -0.000187613  2.272510333  1.810574861
Si -1.967759801 -1.135957430 -0.000056717
 O  1.808355311  0.305968535 -1.147170463
 O -1.175509953  1.422530790  2.478397105
 O -0.636992908 -1.721146803  0.658223054
 O  0.643999677 -1.729266144 -2.478155907
 O -1.808793367  0.308470460 -0.658140571
 O  1.169210093  1.413252165  1.147122911
       9
      8 E_pot = -6.4379752068    8.04483555019 -4.64770427374 -0.011087684813 -0.0020819291293 9.29180253119 0.0110238722156 -0.00708274237963 0.0121273013775 10.2587960025
Si  1.967312012 -1.137315647 -1.811449936
Si -0.001162707  2.272618830  1.811837070
Si -1.967082392 -1.136215262 -0.000055612
 O  1.809507449  0.306085712 -1.146969687
 O -1.173852146  1.420640797  2.477438123
 O -0.637999223 -1.721301756  0.658953946
 O  0.643131399 -1.727105688 -2.477613985
 O -1.809648293  0.308290004 -0.659217672
 O  1.169793902  1.414303009  1.147077754
       9
      9 E_pot = -6.4379798349    8.04364755944 -4.64701377979 -0.0104790293541 -0.00213508525822 9.29032947394 0.0104527742358 -0.00667230783489 0.0114990396214 10.2580712128
Si  1.966717990 -1.136505401 -1.811587454
Si -0.000812202  2.271785225  1.811691677
Si -1.967210148 -1.135827977 -0.000081517
 O  1.810139339  0.305543527 -1.147376016
 O -1.173111141  1.419821368  2.476699655
 O -0.638317809 -1.721632881  0.659490171
 O  0.642797851 -1.725946397 -2.476735736
 O -1.809937566  0.307727536 -0.659494339
 O  1.169733687  1.415035000  1.147393558
       9
     10 E_pot = -6.4379832415    8.04345805433 -4.64665057279 -0.00888852488655 -0.00199408053054 9.28984728792 0.00888289876186 -0.00564901537257 0.00977202822057 10.2582906509
Si  1.967310127 -1.135934891 -1.811410536
Si  0.000144914  2.271714820  1.811101839
Si -1.967619537 -1.136178708  0.000085572
 O  1.810161255  0.306491565 -1.147679228
 O -1.172755649  1.418744522  2.475988205
 O -0.639083745 -1.722105108  0.660079750
 O  0.642144609 -1.724885195 -2.475570707
 O -1.810866142  0.307558292 -0.660311996
 O  1.170564168  1.414594701  1.147717101
       9
     11 E_pot = -6.4379846268    8.04381707131 -4.64649562699 -0.00792941855695 -0.00190974496862 9.28968347017 0.00790361693207 -0.00505266450305 0.00869472564928 10.2588690128
Si  1.967633834 -1.135573895 -1.811266164
Si  0.000335867  2.272059482  1.811431132
Si -1.967820899 -1.136118126 -0.000134457
 O  1.810226271  0.306715583 -1.148074512
 O -1.172443942  1.418239237  2.475342207
 O -0.639248132 -1.722624204  0.660421262
 O  0.641849615 -1.724529905 -2.475476484
 O -1.811359944  0.307418275 -0.660400005
 O  1.170827329  1.414413553  1.148157021
       9
     12 E_pot = -6.4379854336    8.04409467166 -4.64637428898 -0.00704088808649 -0.00172948680268 9.28975301125 0.00702500335248 -0.00448202623199 0.00772816766806 10.259552971
Si  1.967875167 -1.135734426 -1.811480323
Si  0.000427331  2.272128687  1.811608584
Si -1.967713989 -1.136230689  0.000028779
 O  1.810251409  0.306756157 -1.148395256
 O -1.172191447  1.417954017  2.475152719
 O -0.639479835 -1.722841055  0.660342161
 O  0.641768693 -1.724109560 -2.475191321
 O -1.811815138  0.307658358 -0.660541235
 O  1.170877808  1.414418510  1.148475892
       9
     13 E_pot = -6.4379860936    8.04444902703 -4.64603039469 -0.00594367016272 -0.00142671256434 9.28958964439 0.00597333074878 -0.00375621360261 0.00657122840333 10.2600324595
Si  1.967901237 -1.135818119 -1.811483435
Si  0.000351131  2.272137713  1.811213202
Si -1.967872642 -1.135973837  0.000024100
 O  1.810283855  0.306937880 -1.148318061
 O -1.171872290  1.417609445  2.475109673
 O -0.639485440 -1.723237516  0.660563257
 O  0.641714976 -1.723517607 -2.474959474
 O -1.812080581  0.307529712 -0.660542401
 O  1.171059753  1.414332328  1.148393139
       9
     14 E_pot = -6.4379878689    8.04536049359 -4.64457097361 -0.00246634372403 -0.000297515640966 9.2886266337 0.00251502205196 -0.00153555173181 0.00276676196881 10.2608815117
Si  1.967601932 -1.135377607 -1.810172229
Si  0.000395905  2.271470579  1.810086916
Si -1.967921774 -1.136151484  0.000041631
 O  1.810598780  0.307334028 -1.147589113
 O -1.170750854  1.416348165  2.474983241
 O -0.640126242 -1.723382385  0.660995376
 O  0.641434569 -1.721885493 -2.475069580
 O -1.812843044  0.307480075 -0.661058606
 O  1.171610728  1.414164122  1.147782364
       9
     15 E_pot = -6.4379881466    8.04545606496 -4.64428378992 -0.00185533676299 -6.64958706959e-05 9.28845240533 0.00193706335629 -0.00112648763226 0.00213095277681 10.2608264692
Si  1.967585238 -1.135300025 -1.810160336
Si  0.000504554  2.271299103  1.810086143
Si -1.968033484 -1.136011170  0.000081683
 O  1.810674851  0.307335057 -1.147468575
 O -1.170652161  1.416184731  2.475136253
 O -0.640205497 -1.723384574  0.661244469
 O  0.641338259 -1.721685114 -2.475242870
 O -1.812887092  0.307374501 -0.661287015
 O  1.171675332  1.414187491  1.147610249
       9
     16 E_pot = -6.4379883044    8.04550924883 -4.64407056512 -0.00156499308619 0.000185016331951 9.28846158874 0.00165147432621 -0.000939059403984 0.00181677785078 10.2607736847
Si  1.967523527 -1.135253848 -1.810233838
Si  0.000523587  2.271221966  1.810111817
Si -1.967980815 -1.136159128  0.000094529
 O  1.810719204  0.307397326 -1.147372578
 O -1.170506006  1.416035001  2.475110542
 O -0.640363165 -1.723274662  0.661687821
 O  0.641312813 -1.721529568 -2.475189017
 O -1.812874673  0.307279039 -0.661764593
 O  1.171645528  1.414283873  1.147555315
       9
     17 E_pot = -6.4379884323    8.04563041845 -4.64387218475 -0.00134822455773 0.000437617782743 9.28850234768 0.00145143614223 -0.000790755342011 0.00159671694144 10.2608073677
Si  1.967455580 -1.135147807 -1.810303116
Si  0.000521438  2.271209015  1.810204693
Si -1.968054077 -1.136107094  0.000069578
 O  1.810817383  0.307383223 -1.147311129
 O -1.170365895  1.415899212  2.474994985
 O -0.640557654 -1.723120580  0.662092337
 O  0.641265392 -1.721376999 -2.475098307
 O -1.812776064  0.306942961 -0.662080103
 O  1.171693898  1.414318067  1.147431062
       9
     18 E_pot = -6.4379885488    8.04587146519 -4.64362977893 -0.00120503179553 0.000827827935348 9.28869340159 0.00132643059806 -0.000688256746251 0.00145919902774 10.2609589601
Si  1.967650891 -1.135268823 -1.810251992
Si  0.000618807  2.271307141  1.810286952
Si -1.968217451 -1.136118293  0.000058440
 O  1.811090533  0.307230982 -1.147217876
 O -1.170344066  1.415796248  2.474875201
 O -0.640863355 -1.722920066  0.662386124
 O  0.641145575 -1.721302073 -2.474960251
 O -1.812779269  0.306711222 -0.662438863
 O  1.171698335  1.414563660  1.147262264
       9
     19 E_pot = -6.4379886856    8.0461806205 -4.64336666578 -0.00104304428184 0.00131987616415 9.28901943001 0.00115833561049 -0.000589251372945 0.00127427865363 10.2611656144
Si  1.967873591 -1.135331683 -1.810418095
Si  0.000645818  2.271653659  1.810379201
Si -1.968416155 -1.136318733 -0.000028610
 O  1.811475045  0.307108725 -1.146971405
 O -1.170381338  1.415718696  2.474725829
 O -0.641156927 -1.722816911  0.662769604
 O  0.641063144 -1.721375490 -2.474771214
 O -1.812738429  0.306323541 -0.662696345
 O  1.171635250  1.415038194  1.147011036
       9
     20 E_pot = -6.4379887415    8.0462581166 -4.64330465442 -0.000956084620148 0.00150780681946 9.28922091356 0.00106297210269 -0.000539357570906 0.0011693697816 10.2612672905
Si  1.967899062 -1.135314116 -1.810466383
Si  0.000637790  2.271782993  1.810433224
Si -1.968522949 -1.136458501  0.000043451
 O  1.811689172  0.306955208 -1.146945882
 O -1.170405618  1.415785716  2.474628329
 O -0.641282079 -1.722765051  0.662903603
 O  0.641096777 -1.721488943 -2.474648320
 O -1.812728194  0.306225576 -0.662833573
 O  1.171616039  1.415277117  1.146885550
       9
     21 E_pot = -6.4379887855    8.04631217358 -4.64334063375 -0.000870833668575 0.00161174248373 9.28947289453 0.000968266486894 -0.000491216450759 0.00106518465296 10.2613591385
Si  1.967955027 -1.135445915 -1.810460990
Si  0.000619392  2.271863684  1.810466978
Si -1.968685938 -1.136504533  0.000023742
 O  1.811833787  0.306936581 -1.146904291
 O -1.170446514  1.415954282  2.474517338
 O -0.641363095 -1.722726246  0.663044889
 O  0.641171471 -1.721652373 -2.474562905
 O -1.812689649  0.306090207 -0.662945036
 O  1.171605520  1.415484312  1.146820274
       9
     22 E_pot = -6.4379888035    8.04634308261 -4.6434351148 -0.00083029018227 0.00162014016225 9.28967640187 0.000904485847487 -0.000480224536839 0.000995019921277 10.2614207908
Si  1.967992422 -1.135503225 -1.810419930
Si  0.000583080  2.271964340  1.810422944
Si -1.968710279 -1.136570288 -0.000001333
 O  1.811894552  0.306902282 -1.146927918
 O -1.170495637  1.416044497  2.474543769
 O -0.641428662 -1.722661331  0.663109477
 O  0.641220979 -1.721753098 -2.474548331
 O -1.812656667  0.306020898 -0.663014575
 O  1.171600212  1.415555925  1.146835897
       9
     23 E_pot = -6.4379888130    8.04637235452 -4.64358746579 -0.000797249132225 0.00156846162335 9.28989159378 0.00084810013861 -0.000474065988041 0.000932990312121 10.2614687029
Si  1.968013363 -1.135539478 -1.810413911
Si  0.000539139  2.272063421  1.810413664
Si -1.968728686 -1.136558778 -0.000015771
 O  1.811910735  0.306847955 -1.146916229
 O -1.170508953  1.416101121  2.474556076
 O -0.641420003 -1.722674002  0.663167176
 O  0.641245215 -1.721803419 -2.474549472
 O -1.812625982  0.305970471 -0.663035823
 O  1.171575172  1.415592708  1.146794289
       9
     24 E_pot = -6.4379888579    8.04644763545 -4.64445700761 -0.000631498839415 0.00124662314243 9.29107323539 0.000541866620288 -0.00045801790752 0.000596104497777 10.2616834003
Si  1.968145823 -1.135826690 -1.810337413
Si  0.000404980  2.272419277  1.810363194
Si -1.968676493 -1.136651091 -0.000017183
 O  1.811938913  0.306563628 -1.146756065
 O -1.170522338  1.416375133  2.474576904
 O -0.641404915 -1.722698048  0.663374866
 O  0.641357931 -1.722009495 -2.474512711
 O -1.812540666  0.305921378 -0.663256454
 O  1.171296765  1.415905908  1.146564862
       9
     25 E_pot = -6.4379888798    8.04640713008 -4.64483193716 -0.000563021406216 0.00106335198593 9.29150565871 0.000403630849024 -0.000458831459176 0.000444032083793 10.26166847
Si  1.968177994 -1.135933145 -1.810228402
Si  0.000345804  2.272560595  1.810239446
Si -1.968617434 -1.136641970 -0.000021050
 O  1.811950121  0.306393552 -1.146603076
 O -1.170509275  1.416492359  2.474526913
 O -0.641421219 -1.722686252  0.663491655
 O  0.641414571 -1.722079000 -2.474455304
 O -1.812466639  0.305805723 -0.663348984
 O  1.171126078  1.416088138  1.146398802
       9
     26 E_pot = -6.4379888880    8.04638457844 -4.64497116088 -0.000541723666354 0.000978529422828 9.29163718879 0.000357511990189 -0.000461069291964 0.000393296980071 10.2616275953
Si  1.968209140 -1.135999654 -1.810192497
Si  0.000303369  2.272645788  1.810209169
Si -1.968580525 -1.136643873 -0.000002014
 O  1.811958373  0.306310695 -1.146529486
 O -1.170518024  1.416537880  2.474515618
 O -0.641440253 -1.722668653  0.663531539
 O  0.641436407 -1.722105697 -2.474432321
 O -1.812449943  0.305787881 -0.663410230
 O  1.171081455  1.416135632  1.146310221
       9
     27 E_pot = -6.4379888922    8.04640631713 -4.64504464622 -0.00052880366355 0.000908399464745 9.29166269051 0.000339431756461 -0.000456140764151 0.000373407014086 10.2616154719
Si  1.968237956 -1.136033752 -1.810205575
Si  0.000285580  2.272679644  1.810218468
Si -1.968568359 -1.136624925 -0.000015622
 O  1.811977513  0.306236207 -1.146499758
 O -1.170538189  1.416557272  2.474509819
 O -0.641444091 -1.722660999  0.663563756
 O  0.641444163 -1.722110521 -2.474429949
 O -1.812439045  0.305769134 -0.663445374
 O  1.171044473  1.416187939  1.146304234
       9
     28 E_pot = -6.4379889014    8.0465781312 -4.64526147406 -0.000498136007101 0.000692806181177 9.29172292671 0.000318865451367 -0.000430246808503 0.000350782134623 10.2616942451
Si  1.968318607 -1.136135874 -1.810250350
Si  0.000228324  2.272743090  1.810244773
Si -1.968559277 -1.136616713 -0.000000814
 O  1.812020329  0.306098790 -1.146439567
 O -1.170578587  1.416570581  2.474448438
 O -0.641484651 -1.722598814  0.663632904
 O  0.641455244 -1.722076845 -2.474382288
 O -1.812417891  0.305724475 -0.663572373
 O  1.171017902  1.416291309  1.146319276
       9
     29 E_pot = -6.4379889061    8.04669787794 -4.64537541787 -0.000477623159646 0.000576747776393 9.29174979476 0.000310426194868 -0.000409549915535 0.000341498154822 10.2617465637
Si  1.968363383 -1.136180874 -1.810250035
Si  0.000192419  2.272791031  1.810237052
Si -1.968577970 -1.136594798  0.000009329
 O  1.812048643  0.306026611 -1.146414073
 O -1.170605507  1.416573567  2.474417173
 O -0.641481600 -1.722594228  0.663693742
 O  0.641456673 -1.722069438 -2.474374393
 O -1.812410587  0.305701604 -0.663644525
 O  1.171014546  1.416346523  1.146325730
       9
     30 E_pot = -6.4379889088    8.04679352914 -4.64544590326 -0.00045218288221 0.00050474082441 9.29176604551 0.000301520036189 -0.000382890371634 0.000331700538495 10.2617959045
Si  1.968390539 -1.136202281 -1.810245201
Si  0.000186256  2.272803097  1.810232494
Si -1.968587244 -1.136594351  0.000023747
 O  1.812067924  0.305998736 -1.146385594
 O -1.170638506  1.416577685  2.474419590
 O -0.641488386 -1.722569454  0.663707770
 O  0.641457010 -1.722091483 -2.474393284
 O -1.812406954  0.305689646 -0.663682486
 O  1.171019361  1.416388404  1.146322965
       9
     31 E_pot = -6.4379889118    8.04692913597 -4.64552633012 -0.000407576837356 0.000409674878507 9.29176223977 0.000297759794282 -0.000328616635868 0.000327563916992 10.2618857368
Si  1.968401136 -1.136243867 -1.810250860
Si  0.000157448  2.272804182  1.810223634
Si -1.968587616 -1.136568069  0.000015233
 O  1.812102422  0.305937918 -1.146343865
 O -1.170693542  1.416613511  2.474424050
 O -0.641471948 -1.722550186  0.663716048
 O  0.641485905 -1.722139358 -2.474389999
 O -1.812418196  0.305709614 -0.663712211
 O  1.171024391  1.416436254  1.146317969
       9
     32 E_pot = -6.4379889128    8.04697049977 -4.64555110786 -0.000390559193825 0.000376350777353 9.29175407606 0.000297259398409 -0.000307317344277 0.000327013434236 10.261911748
Si  1.968402849 -1.136261335 -1.810243054
Si  0.000141079  2.272810052  1.810230592
Si -1.968574831 -1.136562313  0.000011291
 O  1.812107909  0.305923623 -1.146327809
 O -1.170706447  1.416625796  2.474412418
 O -0.641471786 -1.722530838  0.663717544
 O  0.641491800 -1.722157872 -2.474395212
 O -1.812417770  0.305712860 -0.663720018
 O  1.171027196  1.416440026  1.146314248
       9
     33 E_pot = -6.4379889136    8.04699444622 -4.64556742804 -0.000365450496111 0.000346012516202 9.29173416888 0.000296062618559 -0.000276182477035 0.000325696863285 10.2619210883
Si  1.968400105 -1.136276366 -1.810230050
Si  0.000133485  2.272809349  1.810217117
Si -1.968554932 -1.136546750  0.000012299
 O  1.812106422  0.305906197 -1.146320031
 O -1.170716587  1.416633382  2.474399632
 O -0.641462124 -1.722511362  0.663732629
 O  0.641486625 -1.722167805 -2.474393988
 O -1.812408928  0.305713212 -0.663733661
 O  1.171015935  1.416440142  1.146316053
       9
     34 E_pot = -6.4379889147    8.04701342794 -4.64559206369 -0.000321562496937 0.000302760735691 9.29170852569 0.000288207940993 -0.000225421390436 0.000317055975564 10.261919584
Si  1.968390478 -1.136291963 -1.810228729
Si  0.000130821  2.272802786  1.810206265
Si -1.968527906 -1.136530122  0.000013960
 O  1.812098154  0.305893336 -1.146292586
 O -1.170730385  1.416634031  2.474383936
 O -0.641448072 -1.722473855  0.663745550
 O  0.641473823 -1.722173832 -2.474376572
 O -1.812390371  0.305716143 -0.663754456
 O  1.171003459  1.416423476  1.146302632
       9
     35 E_pot = -6.4379889160    8.04703535719 -4.64562223966 -0.000259216386658 0.000246326013183 9.29167112958 0.000271247222782 -0.000156996994213 0.000298397582459 10.2619108147
Si  1.968369304 -1.136292594 -1.810207389
Si  0.000128097  2.272794795  1.810201814
Si -1.968502885 -1.136511408 -0.000001462
 O  1.812095457  0.305867377 -1.146254563
 O -1.170741817  1.416620815  2.474345049
 O -0.641412945 -1.722437275  0.663767796
 O  0.641453919 -1.722180290 -2.474349739
 O -1.812370929  0.305737454 -0.663788883
 O  1.170981800  1.416401124  1.146287376
       9
     36 E_pot = -6.4379889168    8.04703518522 -4.64564326314 -0.000219863328313 0.000215651565972 9.2916600467 0.000258238189406 -0.000115270264691 0.000284086416175 10.2619133661
Si  1.968361513 -1.136302074 -1.810188295
Si  0.000125595  2.272793036  1.810198049
Si -1.968492257 -1.136500109 -0.000006936
 O  1.812098232  0.305859874 -1.146248042
 O -1.170748649  1.416603888  2.474309364
 O -0.641394866 -1.722404702  0.663761750
 O  0.641437328 -1.722184389 -2.474317076
 O -1.812354665  0.305739535 -0.663799603
 O  1.170967768  1.416394941  1.146290788
       9
     37 E_pot = -6.4379889177    8.0470256009 -4.64566974122 -0.000173441953164 0.000179649832934 9.29165064587 0.000242197719322 -6.64902000131e-05 0.000266440382991 10.2619076523
Si  1.968358482 -1.136324134 -1.810169642
Si  0.000109459  2.272813443  1.810186064
Si -1.968478129 -1.136489545 -0.000009918
 O  1.812104057  0.305854045 -1.146244404
 O -1.170763386  1.416585968  2.474266240
 O -0.641361221 -1.722381136  0.663765706
 O  0.641414101 -1.722196178 -2.474276492
 O -1.812338178  0.305749719 -0.663811052
 O  1.170954816  1.416387816  1.146293499
       9
     38 E_pot = -6.4379889184    8.0470028191 -4.64568792726 -0.000140511225051 0.000154587538852 9.29164360868 0.000226374661901 -3.47088997287e-05 0.000249033524284 10.2618955752
Si  1.968348901 -1.136331866 -1.810165783
Si  0.000101886  2.272818515  1.810182276
Si -1.968455231 -1.136491067 -0.000010850
 O  1.812114676  0.305844456 -1.146242625
 O -1.170779139  1.416579930  2.474231967
 O -0.641342957 -1.722358124  0.663769812
 O  0.641392168 -1.722210456 -2.474251089
 O -1.812324493  0.305757521 -0.663809332
 O  1.170944190  1.416391090  1.146295625
       9
     39 E_pot = -6.4379889191    8.04697147943 -4.64570881132 -0.0001108612213 0.000128876671292 9.29164084415 0.000208676366468 -8.28606176484e-06 0.000229563726522 10.2618796612
Si  1.968331120 -1.136345289 -1.810152843
Si  0.000096961  2.272808629  1.810169381
Si -1.968433493 -1.136474236 -0.000015978
 O  1.812131531  0.305834918 -1.146238622
 O -1.170796805  1.416576668  2.474184598
 O -0.641320918 -1.722341529  0.663788601
 O  0.641363109 -1.722222419 -2.474215403
 O -1.812313043  0.305770404 -0.663811821
 O  1.170941538  1.416392853  1.146292086
       9
     40 E_pot = -6.4379889197    8.0469468609 -4.64573354501 -9.04825510485e-05 0.000107043527227 9.29165249533 0.0001909303001 6.32927826814e-06 0.000210041376217 10.2618714604
Si  1.968311822 -1.136355261 -1.810146641
Si  0.000087653  2.272805749  1.810160072
Si -1.968402600 -1.136467604 -0.000015693
 O  1.812144241  0.305838227 -1.146232348
 O -1.170813410  1.416562697  2.474150670
 O -0.641308192 -1.722321700  0.663799317
 O  0.641337660 -1.722235325 -2.474179143
 O -1.812302560  0.305782091 -0.663821991
 O  1.170945387  1.416391126  1.146285757
       9
     41 E_pot = -6.4379889207    8.04691643955 -4.64577753088 -5.94553540988e-05 7.15618619252e-05 9.29167901086 0.000157312424491 2.43903982964e-05 0.000173058535595 10.2618646633
Si  1.968276807 -1.136356980 -1.810137299
Si  0.000069000  2.272804626  1.810146530
Si -1.968351334 -1.136440888 -0.000019871
 O  1.812167985  0.305838124 -1.146234409
 O -1.170843942  1.416525153  2.474103747
 O -0.641271197 -1.722306876  0.663824660
 O  0.641291137 -1.722260802 -2.474125822
 O -1.812280560  0.305793409 -0.663842608
 O  1.170942105  1.416404232  1.146285072
       9
     42 E_pot = -6.4379889213    8.0469017446 -4.64580079855 -4.35144029426e-05 5.39162617228e-05 9.29169498304 0.000138386755595 3.26193975174e-05 0.000152238511018 10.2618584865
Si  1.968268862 -1.136368134 -1.810134177
Si  0.000060374  2.272794591  1.810153509
Si -1.968327286 -1.136423180 -0.000016595
 O  1.812174859  0.305839370 -1.146235413
 O -1.170860989  1.416507412  2.474081434
 O -0.641250553 -1.722299640  0.663830618
 O  0.641263223 -1.722269571 -2.474101750
 O -1.812268645  0.305804820 -0.663856444
 O  1.170940156  1.416414332  1.146278818
       9
     43 E_pot = -6.4379889216    8.04688664198 -4.64581207065 -3.26690600343e-05 4.25964191744e-05 9.29169792065 0.000118802702179 3.39574003013e-05 0.000130694201239 10.2618436354
Si  1.968261768 -1.136366728 -1.810129219
Si  0.000043230  2.272783375  1.810148517
Si -1.968307436 -1.136417094 -0.000015507
 O  1.812171485  0.305838665 -1.146233532
 O -1.170872676  1.416493165  2.474057368
 O -0.641231102 -1.722299010  0.663837862
 O  0.641242646 -1.722263663 -2.474074447
 O -1.812248252  0.305808739 -0.663858591
 O  1.170940336  1.416422551  1.146267548
       9
     44 E_pot = -6.4379889219    8.04686633113 -4.64581664833 -2.35691964301e-05 3.47069286041e-05 9.29169341097 9.51121619744e-05 3.04699750278e-05 0.000104632367862 10.2618203469
Si  1.968256840 -1.136369188 -1.810116544
Si  0.000032749  2.272770672  1.810135246
Si -1.968287124 -1.136414588 -0.000013662
 O  1.812164153  0.305838212 -1.146230134
 O -1.170886800  1.416478129  2.474036190
 O -0.641222241 -1.722289529  0.663839013
 O  0.641226508 -1.722260209 -2.474049218
 O -1.812223933  0.305816649 -0.663863722
 O  1.170939849  1.416429850  1.146262830
       9
     45 E_pot = -6.4379889225    8.04683147136 -4.64582249081 -7.72052988656e-06 2.07255445427e-05 9.29168087941 5.05734760863e-05 2.23139408784e-05 5.56356037344e-05 10.2617760175
Si  1.968245954 -1.136372779 -1.810097901
Si  0.000014339  2.272758682  1.810111892
Si -1.968265231 -1.136389813 -0.000011700
 O  1.812148874  0.305837409 -1.146223720
 O -1.170912801  1.416453104  2.473996586
 O -0.641203922 -1.722280807  0.663844753
 O  0.641202364 -1.722260843 -2.474007982
 O -1.812174350  0.305820857 -0.663865121
 O  1.170944773  1.416434190  1.146253193
       9
     46 E_pot = -6.4379889228    8.04681175143 -4.64582937229 2.14572127072e-06 1.20599851287e-05 9.29167963314 2.13039982718e-05 1.62566430948e-05 2.34364116831e-05 10.2617578412
Si  1.968236209 -1.136373656 -1.810096400
Si  0.000006775  2.272752590  1.810102943
Si -1.968252571 -1.136380185 -0.000001938
 O  1.812137454  0.305837607 -1.146222017
 O -1.170925891  1.416442588  2.473966700
 O -0.641192583 -1.722282564  0.663846200
 O  0.641193384 -1.722268935 -2.473977252
 O -1.812148909  0.305834872 -0.663868268
 O  1.170946132  1.416437682  1.146250032
       9
     47 E_pot = -6.4379889229    8.04681004945 -4.64583186228 5.33576455584e-06 9.66666530369e-06 9.29168046777 1.29544474522e-05 1.50057610482e-05 1.42511166094e-05 10.261758306
Si  1.968236160 -1.136372071 -1.810096555
Si  0.000007029  2.272748768  1.810100077
Si -1.968249696 -1.136377943 -0.000003681
 O  1.812133202  0.305840779 -1.146222515
 O -1.170930637  1.416442444  2.473958115
 O -0.641190222 -1.722283889  0.663847453
 O  0.641190227 -1.722272689 -2.473968175
 O -1.812142531  0.305835644 -0.663866682
 O  1.170946467  1.416438956  1.146251963
       9
     48 E_pot = -6.4379889229    8.04681037318 -4.64583412497 8.06467185548e-06 7.87666209822e-06 9.29168189276 6.14469990076e-06 1.41470967395e-05 6.75975066777e-06 10.2617607862
Si  1.968239358 -1.136370779 -1.810094562
Si  0.000006500  2.272747714  1.810097380
Si -1.968247213 -1.136377090 -0.000003397
 O  1.812129739  0.305842458 -1.146225689
 O -1.170936772  1.416444312  2.473953082
 O -0.641189306 -1.722285066  0.663848639
 O  0.641186966 -1.722277016 -2.473959175
 O -1.812139750  0.305839125 -0.663867711
 O  1.170950478  1.416436342  1.146251432
